andes/cases/GBnetwork/GBnetwork.m
function mpc = GBnetwork
% UK network data obtained from following publically available source:
%
%   Reference:
%   [1] GB SQSS Reviw working group report. [Online]
%       http://www.nationalgrid.com/uk/Electricity/Codes/gbsqsscode/workinggroups/intgeneration/

%Data Stats: 2224 buses, 394 generators, 3207 branches

% Acknowledgement:
% Thanks to Manolis Belivanis, Strathclyde University for pointing out the
% source of data and helping out with details.
%   MATPOWER
%   $Id: case39.m,v 1.14 2010/03/10 18:08:13 ray Exp $


%% 
%  W. A. Bukhsh March 2013
%  send your questions and comments to : w.a.bukhsh@sms.ed.ac.uk


%%
mpc.version = '2';
mpc.baseMVA = 100;
%% Bus Data
mpc.bus = [
1	1	0.00	0.00	0.00	0.00	1	1.0493	-1.4690	275.00	1	1.06	0.94;
2	2	0.00	0.00	0.00	0.00	1	1.0530	2.7505	275.00	1	1.06	0.94;
3	2	0.00	0.00	0.00	0.00	1	1.0530	2.7905	275.00	1	1.06	0.94;
4	2	0.00	0.00	0.00	0.00	1	1.0530	2.7451	275.00	1	1.06	0.94;
5	1	0.00	0.00	0.00	0.00	1	1.0420	0.3483	275.00	1	1.06	0.94;
6	2	0.00	0.00	0.00	0.00	1	1.0530	11.9795	275.00	1	1.06	0.94;
7	2	0.00	0.00	0.00	0.00	1	1.0530	11.9991	275.00	1	1.06	0.94;
8	1	0.00	0.00	0.00	0.00	1	1.0479	2.3561	275.00	1	1.06	0.94;
9	2	0.00	0.00	0.00	0.00	1	1.0530	13.7786	275.00	1	1.06	0.94;
10	2	0.00	0.00	0.00	0.00	1	1.0530	13.9344	275.00	1	1.06	0.94;
11	2	0.00	0.00	0.00	0.00	1	1.0530	13.9670	275.00	1	1.06	0.94;
12	2	0.00	0.00	0.00	0.00	1	1.0530	12.4827	275.00	1	1.06	0.94;
13	2	0.00	0.00	0.00	0.00	1	1.0530	15.9216	275.00	1	1.06	0.94;
14	1	7.79	21.52	0.00	0.00	1	1.0530	17.1884	400.00	1	1.06	0.94;
15	2	0.00	0.00	0.00	0.00	1	1.0530	21.5384	400.00	1	1.06	0.94;
16	2	0.00	0.00	0.00	0.00	1	1.0530	21.4533	400.00	1	1.06	0.94;
17	2	0.00	0.00	0.00	0.00	1	1.0530	21.4673	400.00	1	1.06	0.94;
18	2	0.00	0.00	0.00	0.00	1	1.0530	21.4446	400.00	1	1.06	0.94;
19	1	0.00	0.00	0.00	0.00	1	1.0481	16.7492	400.00	1	1.06	0.94;
20	2	0.00	0.00	0.00	0.00	1	1.0530	27.0498	400.00	1	1.06	0.94;
21	2	0.00	0.00	0.00	0.00	1	1.0530	27.0498	400.00	1	1.06	0.94;
22	2	0.00	0.00	0.00	0.00	1	1.0530	21.8639	400.00	1	1.06	0.94;
23	1	0.00	0.00	0.00	0.00	1	1.0522	-2.1979	400.00	1	1.06	0.94;
24	2	0.00	0.00	0.00	0.00	1	1.0530	2.2708	400.00	1	1.06	0.94;
25	2	0.00	0.00	0.00	0.00	1	1.0530	2.1618	400.00	1	1.06	0.94;
26	1	0.00	0.00	0.00	0.00	1	1.0530	0.2692	400.00	1	1.06	0.94;
27	2	0.00	0.00	0.00	0.00	1	1.0530	4.5396	400.00	1	1.06	0.94;
28	2	0.00	0.00	0.00	0.00	1	1.0530	4.6972	400.00	1	1.06	0.94;
29	1	0.00	0.00	0.00	0.00	1	1.0492	22.7018	400.00	1	1.06	0.94;
30	2	0.00	0.00	0.00	0.00	1	1.0530	29.5434	400.00	1	1.06	0.94;
31	2	0.00	0.00	0.00	0.00	1	1.0530	29.5434	400.00	1	1.06	0.94;
32	2	0.00	0.00	0.00	0.00	1	1.0530	29.5434	400.00	1	1.06	0.94;
33	2	0.00	0.00	0.00	0.00	1	1.0530	29.5434	400.00	1	1.06	0.94;
34	2	0.00	0.00	0.00	0.00	1	1.0530	29.5434	400.00	1	1.06	0.94;
35	2	0.00	0.00	0.00	0.00	1	1.0102	22.7018	400.00	1	1.06	0.94;
36	1	0.00	0.00	0.00	0.00	1	1.0530	19.6662	400.00	1	1.06	0.94;
37	2	0.00	0.00	0.00	0.00	1	1.0530	22.6393	400.00	1	1.06	0.94;
38	2	0.00	0.00	0.00	0.00	1	1.0530	22.6239	400.00	1	1.06	0.94;
39	2	0.00	0.00	0.00	0.00	1	1.0530	22.6900	400.00	1	1.06	0.94;
40	1	0.00	0.00	0.00	0.00	1	1.0526	18.9980	400.00	1	1.06	0.94;
41	2	0.00	0.00	0.00	0.00	1	1.0530	21.8870	400.00	1	1.06	0.94;
42	2	0.00	0.00	0.00	0.00	1	1.0530	21.9118	400.00	1	1.06	0.94;
43	2	0.00	0.00	0.00	0.00	1	1.0530	21.8837	400.00	1	1.06	0.94;
44	1	0.00	0.00	0.00	0.00	1	1.0506	-2.2249	400.00	1	1.06	0.94;
45	2	0.00	0.00	0.00	0.00	1	1.0530	1.1939	400.00	1	1.06	0.94;
46	2	0.00	0.00	0.00	0.00	1	1.0530	1.2109	400.00	1	1.06	0.94;
47	1	0.00	0.00	0.00	0.00	1	1.0508	17.7893	400.00	1	1.06	0.94;
48	2	0.00	0.00	0.00	0.00	1	1.0530	21.6306	400.00	1	1.06	0.94;
49	2	0.00	0.00	0.00	0.00	1	1.0530	21.9700	400.00	1	1.06	0.94;
50	1	15.98	11.47	0.00	0.00	1	1.0512	18.7796	400.00	1	1.06	0.94;
51	2	0.00	0.00	0.00	0.00	1	1.0530	22.6605	400.00	1	1.06	0.94;
52	2	0.00	0.00	0.00	0.00	1	1.0530	22.8792	400.00	1	1.06	0.94;
53	1	0.00	0.00	0.00	0.00	1	1.0231	-10.6942	400.00	1	1.06	0.94;
54	2	0.00	0.00	0.00	0.00	1	1.0055	-10.6942	400.00	1	1.06	0.94;
55	2	0.00	0.00	0.00	0.00	1	1.0055	-10.6942	400.00	1	1.06	0.94;
56	1	0.00	0.00	0.00	0.00	1	1.0529	15.6078	275.00	1	1.06	0.94;
57	2	0.00	0.00	0.00	0.00	1	1.0530	19.9553	275.00	1	1.06	0.94;
58	1	0.00	0.00	0.00	0.00	1	1.0529	15.7090	275.00	1	1.06	0.94;
59	2	0.00	0.00	0.00	0.00	1	1.0530	20.1519	275.00	1	1.06	0.94;
60	1	0.00	0.00	0.00	0.00	1	1.0439	13.7887	275.00	1	1.06	0.94;
61	2	0.00	0.00	0.00	0.00	1	1.0530	18.1498	275.00	1	1.06	0.94;
62	2	0.00	0.00	0.00	0.00	1	1.0530	19.9965	275.00	1	1.06	0.94;
63	1	0.00	0.00	0.00	0.00	1	1.0476	21.1867	275.00	1	1.06	0.94;
64	2	0.00	0.00	0.00	0.00	1	1.0530	34.9748	275.00	1	1.06	0.94;
65	2	0.00	0.00	0.00	0.00	1	1.0351	28.2008	275.00	1	1.06	0.94;
66	1	0.00	0.00	0.00	0.00	1	1.0530	16.3628	275.00	1	1.06	0.94;
67	2	0.00	0.00	0.00	0.00	1	1.0530	20.8923	275.00	1	1.06	0.94;
68	1	0.00	0.00	0.00	0.00	1	1.0530	16.3222	275.00	1	1.06	0.94;
69	2	0.00	0.00	0.00	0.00	1	1.0530	20.8527	275.00	1	1.06	0.94;
70	1	0.00	0.00	0.00	0.00	1	1.0530	15.3043	275.00	1	1.06	0.94;
71	2	0.00	0.00	0.00	0.00	1	1.0530	19.8131	275.00	1	1.06	0.94;
72	1	0.00	0.00	0.00	0.00	1	1.0530	15.3142	275.00	1	1.06	0.94;
73	2	0.00	0.00	0.00	0.00	1	1.0530	19.6272	275.00	1	1.06	0.94;
74	1	15.83	10.93	0.00	0.00	1	1.0515	0.8361	400.00	1	1.06	0.94;
75	2	0.00	0.00	0.00	0.00	1	1.0017	0.8361	400.00	1	1.06	0.94;
76	2	0.00	0.00	0.00	0.00	1	1.0017	0.8361	400.00	1	1.06	0.94;
77	2	0.00	0.00	0.00	0.00	1	1.0017	0.8361	400.00	1	1.06	0.94;
78	2	0.00	0.00	0.00	0.00	1	1.0017	0.8361	400.00	1	1.06	0.94;
79	1	0.00	0.00	0.00	0.00	1	1.0530	23.1218	275.00	1	1.06	0.94;
80	2	0.00	0.00	0.00	0.00	1	1.0530	26.4538	275.00	1	1.06	0.94;
81	2	0.00	0.00	0.00	0.00	1	1.0530	26.4620	275.00	1	1.06	0.94;
82	1	0.00	0.00	0.00	0.00	1	1.0530	18.0486	400.00	1	1.06	0.94;
83	2	0.00	0.00	0.00	0.00	1	1.0530	21.2460	400.00	1	1.06	0.94;
84	2	0.00	0.00	0.00	0.00	1	1.0530	21.2899	400.00	1	1.06	0.94;
85	2	0.00	0.00	0.00	0.00	1	1.0530	21.1733	400.00	1	1.06	0.94;
86	2	0.00	0.00	0.00	0.00	1	1.0530	21.1327	400.00	1	1.06	0.94;
87	1	0.00	0.00	0.00	0.00	1	1.0525	-8.7622	400.00	1	1.06	0.94;
88	2	0.00	0.00	0.00	0.00	1	1.0530	-5.1993	400.00	1	1.06	0.94;
89	2	0.00	0.00	0.00	0.00	1	1.0530	-5.3311	400.00	1	1.06	0.94;
90	1	0.00	0.00	0.00	2.02	1	1.0478	6.3877	400.00	1	1.06	0.94;
91	2	0.00	0.00	0.00	0.00	1	1.0530	10.8167	400.00	1	1.06	0.94;
92	2	0.00	0.00	0.00	0.00	1	1.0530	10.9454	400.00	1	1.06	0.94;
93	1	0.00	0.00	0.00	0.00	1	1.0514	23.3416	400.00	1	1.06	0.94;
94	2	0.00	0.00	0.00	0.00	1	1.0530	31.5402	400.00	1	1.06	0.94;
95	1	0.00	0.00	0.00	0.00	1	1.0501	23.1662	400.00	1	1.06	0.94;
96	2	0.00	0.00	0.00	0.00	1	1.0530	31.0070	400.00	1	1.06	0.94;
97	2	0.00	0.00	0.00	0.00	1	1.0530	31.0025	400.00	1	1.06	0.94;
98	1	0.00	0.00	0.00	0.00	1	1.0528	27.9944	400.00	1	1.06	0.94;
99	2	0.00	0.00	0.00	0.00	1	1.0530	36.0731	400.00	1	1.06	0.94;
100	2	0.00	0.00	0.00	0.00	1	1.0530	35.3815	400.00	1	1.06	0.94;
101	2	0.00	0.00	0.00	0.00	1	1.0530	36.0097	400.00	1	1.06	0.94;
102	2	0.00	0.00	0.00	0.00	1	1.0530	36.0097	400.00	1	1.06	0.94;
103	2	0.00	0.00	0.00	0.00	1	1.0530	36.0522	400.00	1	1.06	0.94;
104	2	0.00	0.00	0.00	0.00	1	1.0530	36.0522	400.00	1	1.06	0.94;
105	2	0.00	0.00	0.00	0.00	1	1.0530	35.8842	400.00	1	1.06	0.94;
106	2	0.00	0.00	0.00	0.00	1	1.0530	35.8842	400.00	1	1.06	0.94;
107	2	0.00	0.00	0.00	0.00	1	1.0530	35.8842	400.00	1	1.06	0.94;
108	2	0.00	0.00	0.00	0.00	1	1.0530	35.0714	400.00	1	1.06	0.94;
109	1	0.00	0.00	0.00	0.00	1	1.0524	1.2090	400.00	1	1.06	0.94;
110	2	0.00	0.00	0.00	0.00	1	1.0530	5.7289	400.00	1	1.06	0.94;
111	2	0.00	0.00	0.00	0.00	1	1.0530	5.7216	400.00	1	1.06	0.94;
112	1	0.00	0.00	0.00	0.00	1	1.0529	2.6686	400.00	1	1.06	0.94;
113	2	0.00	0.00	0.00	0.00	1	1.0530	6.9404	400.00	1	1.06	0.94;
114	2	0.00	0.00	0.00	0.00	1	1.0530	7.2157	400.00	1	1.06	0.94;
115	1	0.00	0.00	0.00	0.00	1	1.0524	8.9462	400.00	1	1.06	0.94;
116	2	0.00	0.00	0.00	0.00	1	1.0530	19.2041	400.00	1	1.06	0.94;
117	2	0.00	0.00	0.00	0.00	1	1.0530	19.1290	400.00	1	1.06	0.94;
118	2	0.00	0.00	0.00	0.00	1	1.0530	17.1037	400.00	1	1.06	0.94;
119	1	0.00	0.00	0.00	0.00	1	1.0460	-2.1519	400.00	1	1.06	0.94;
120	2	0.00	0.00	0.00	0.00	1	1.0530	0.9816	400.00	1	1.06	0.94;
121	2	0.00	0.00	0.00	0.00	1	1.0530	0.9579	400.00	1	1.06	0.94;
122	2	0.00	0.00	0.00	0.00	1	0.9997	-2.1519	400.00	1	1.06	0.94;
123	1	0.00	0.00	0.00	0.00	1	1.0514	1.0567	400.00	1	1.06	0.94;
124	2	0.00	0.00	0.00	0.00	1	1.0530	9.3374	400.00	1	1.06	0.94;
125	2	0.00	0.00	0.00	0.00	1	1.0530	9.3159	400.00	1	1.06	0.94;
126	2	0.00	0.00	0.00	0.00	1	1.0530	9.3830	400.00	1	1.06	0.94;
127	1	0.00	0.00	0.00	0.00	1	1.0461	5.9997	400.00	1	1.06	0.94;
128	2	0.00	0.00	0.00	0.00	1	1.0530	10.3951	400.00	1	1.06	0.94;
129	2	0.00	0.00	0.00	0.00	1	1.0530	9.1593	400.00	1	1.06	0.94;
130	1	0.00	0.00	0.00	0.00	1	1.0397	5.4684	400.00	1	1.06	0.94;
131	2	0.00	0.00	0.00	0.00	1	1.0530	8.6387	400.00	1	1.06	0.94;
132	2	0.00	0.00	0.00	0.00	1	1.0530	9.4284	400.00	1	1.06	0.94;
133	1	17.68	0.00	0.00	0.00	1	1.0530	5.0631	400.00	1	1.06	0.94;
134	2	0.00	0.00	0.00	0.00	1	1.0530	9.0113	400.00	1	1.06	0.94;
135	2	0.00	0.00	0.00	0.00	1	1.0530	8.9487	400.00	1	1.06	0.94;
136	1	0.00	0.00	0.00	0.00	1	1.0495	4.8068	400.00	1	1.06	0.94;
137	2	0.00	0.00	0.00	0.00	1	1.0530	13.4631	400.00	1	1.06	0.94;
138	2	0.00	0.00	0.00	0.00	1	1.0530	12.6489	400.00	1	1.06	0.94;
139	2	0.00	0.00	0.00	0.00	1	1.0530	13.5123	400.00	1	1.06	0.94;
140	2	0.00	0.00	0.00	0.00	1	1.0530	11.9276	400.00	1	1.06	0.94;
141	1	4.50	3.37	0.00	0.00	1	1.0530	5.7220	400.00	1	1.06	0.94;
142	2	0.00	0.00	0.00	0.00	1	1.0530	8.9705	400.00	1	1.06	0.94;
143	2	0.00	0.00	0.00	0.00	1	1.0530	8.9792	400.00	1	1.06	0.94;
144	1	0.00	0.00	0.00	0.00	1	1.0479	32.4623	275.00	1	1.06	0.94;
145	2	0.00	0.00	0.00	0.00	1	1.0530	45.0702	275.00	1	1.06	0.94;
146	2	0.00	0.00	0.00	0.00	1	1.0530	45.1787	275.00	1	1.06	0.94;
147	2	0.00	0.00	0.00	0.00	1	1.0530	45.1787	275.00	1	1.06	0.94;
148	2	0.00	0.00	0.00	0.00	1	1.0530	45.2316	275.00	1	1.06	0.94;
149	1	0.00	0.00	0.00	0.00	1	1.0479	32.4371	275.00	1	1.06	0.94;
150	2	0.00	0.00	0.00	0.00	1	1.0530	45.0672	275.00	1	1.06	0.94;
151	2	0.00	0.00	0.00	0.00	1	1.0530	45.1873	275.00	1	1.06	0.94;
152	2	0.00	0.00	0.00	0.00	1	1.0530	45.0672	275.00	1	1.06	0.94;
153	2	0.00	0.00	0.00	0.00	1	1.0530	45.1361	275.00	1	1.06	0.94;
154	2	0.00	0.00	0.00	0.00	1	1.0530	39.0635	275.00	1	1.06	0.94;
155	2	0.00	0.00	0.00	0.00	1	1.0530	39.1243	275.00	1	1.06	0.94;
156	2	0.00	0.00	0.00	0.00	1	1.0058	32.4623	275.00	1	1.06	0.94;
157	1	0.00	0.00	0.00	0.00	1	1.0500	1.8604	275.00	1	1.06	0.94;
158	2	0.00	0.00	0.00	0.00	1	0.9915	1.8604	275.00	1	1.06	0.94;
159	2	0.00	0.00	0.00	0.00	1	1.0530	8.6966	275.00	1	1.06	0.94;
160	1	0.00	0.00	0.00	0.00	1	1.0530	2.4134	275.00	1	1.06	0.94;
161	2	0.00	0.00	0.00	0.00	1	1.0530	9.3013	275.00	1	1.06	0.94;
162	2	0.00	0.00	0.00	0.00	1	1.0530	9.2162	275.00	1	1.06	0.94;
163	1	0.00	0.00	0.00	0.00	1	1.0530	17.6886	400.00	1	1.06	0.94;
164	2	0.00	0.00	0.00	0.00	1	1.0530	21.8145	400.00	1	1.06	0.94;
165	2	0.00	0.00	0.00	0.00	1	1.0530	21.8422	400.00	1	1.06	0.94;
166	2	0.00	0.00	0.00	0.00	1	1.0530	21.8683	400.00	1	1.06	0.94;
167	2	0.00	0.00	0.00	0.00	1	1.0530	21.8466	400.00	1	1.06	0.94;
168	1	0.00	0.00	0.00	0.00	1	1.0458	23.4949	400.00	1	1.06	0.94;
169	2	0.00	0.00	0.00	0.00	1	1.0530	30.7823	400.00	1	1.06	0.94;
170	2	0.00	0.00	0.00	0.00	1	1.0530	30.9603	400.00	1	1.06	0.94;
171	2	0.00	0.00	0.00	0.00	1	1.0530	30.7184	400.00	1	1.06	0.94;
172	2	0.00	0.00	0.00	0.00	1	1.0530	30.5500	400.00	1	1.06	0.94;
173	1	0.00	0.00	0.00	0.00	1	1.0530	16.9947	400.00	1	1.06	0.94;
174	2	0.00	0.00	0.00	0.00	1	1.0530	22.8854	400.00	1	1.06	0.94;
175	2	0.00	0.00	0.00	0.00	1	1.0530	22.8936	400.00	1	1.06	0.94;
176	2	0.00	0.00	0.00	0.00	1	1.0530	22.9215	400.00	1	1.06	0.94;
177	2	0.00	0.00	0.00	0.00	1	1.0530	22.9100	400.00	1	1.06	0.94;
178	2	0.00	0.00	0.00	0.00	1	1.0530	8.0184	400.00	1	1.06	0.94;
179	2	0.00	0.00	0.00	0.00	1	1.0530	8.0184	400.00	1	1.06	0.94;
180	2	0.00	0.00	0.00	0.00	1	1.0530	7.5806	400.00	1	1.06	0.94;
181	1	0.00	0.00	0.00	0.00	1	1.0485	-13.1392	400.00	1	1.06	0.94;
182	2	0.00	0.00	0.00	0.00	1	1.0092	-13.1392	400.00	1	1.06	0.94;
183	1	0.00	0.00	0.00	0.00	1	1.0530	28.9168	400.00	1	1.06	0.94;
184	2	0.00	0.00	0.00	0.00	1	1.0530	37.7580	400.00	1	1.06	0.94;
185	2	0.00	0.00	0.00	0.00	1	1.0530	37.7861	400.00	1	1.06	0.94;
186	2	0.00	0.00	0.00	0.00	1	1.0530	37.7472	400.00	1	1.06	0.94;
187	2	0.00	0.00	0.00	0.00	1	1.0530	35.8613	400.00	1	1.06	0.94;
188	2	0.00	0.00	0.00	0.00	1	1.0530	5.6204	400.00	1	1.06	0.94;
189	2	0.00	0.00	0.00	0.00	1	1.0530	5.6369	400.00	1	1.06	0.94;
190	2	0.00	0.00	0.00	0.00	1	1.0530	5.1976	400.00	1	1.06	0.94;
191	2	0.00	0.00	0.00	0.00	1	1.0530	37.9702	400.00	1	1.06	0.94;
192	2	0.00	0.00	0.00	0.00	1	1.0530	37.9992	400.00	1	1.06	0.94;
193	2	0.00	0.00	0.00	0.00	1	1.0530	37.6688	400.00	1	1.06	0.94;
194	1	125.64	71.00	0.00	0.00	1	1.0523	17.2388	400.00	1	1.06	0.94;
195	2	0.00	0.00	0.00	0.00	1	1.0530	24.0269	400.00	1	1.06	0.94;
196	2	0.00	0.00	0.00	0.00	1	1.0530	24.0269	400.00	1	1.06	0.94;
197	2	0.00	0.00	0.00	0.00	1	1.0530	24.0269	400.00	1	1.06	0.94;
198	1	0.00	0.00	0.00	0.00	1	1.0530	12.0447	400.00	1	1.06	0.94;
199	2	0.00	0.00	0.00	0.00	1	1.0530	19.0745	400.00	1	1.06	0.94;
200	2	0.00	0.00	0.00	0.00	1	1.0530	19.0745	400.00	1	1.06	0.94;
...
];
%% Generator Data
mpc.gen = [
2	303.7966	11.6864	298.00	-81.00	1.05	100	1	820.50	0.00	0	0	0	0	0	0	0	0	0	0	0;
3	304.3822	18.8436	298.00	-81.00	1.05	100	1	820.50	0.00	0	0	0	0	0	0	0	0	0	0	0;
4	303.9515	12.9930	298.00	-81.00	1.05	100	1	820.50	0.00	0	0	0	0	0	0	0	0	0	0	0;
6	191.2500	39.0691	 78.00	-45.00	1.05	100	1	191.25	0.00	0	0	0	0	0	0	0	0	0	0	0;
7	191.2500	39.0639	 78.00	-45.00	1.05	100	1	191.25	0.00	0	0	0	0	0	0	0	0	0	0	0;
9	191.2500	32.7382	 81.00	-46.00	1.05	100	1	191.25	0.00	0	0	0	0	0	0	0	0	0	0	0;
10	191.2500	33.7448	 78.00	-45.00	1.05	100	1	191.25	0.00	0	0	0	0	0	0	0	0	0	0	0;
11	191.2500	33.7382	 78.00	-45.00	1.05	100	1	191.25	0.00	0	0	0	0	0	0	0	0	0	0	0;
12	209.2500	42.7363	 78.00	-46.00	1.05	100	1	209.25	0.00	0	0	0	0	0	0	0	0	0	0	0;
13	302.3886	67.1289	125.00	-70.00	1.05	100	1	334.50	0.00	0	0	0	0	0	0	0	0	0	0	0;
15	290.4628	115.3728	263.00	-120.00	1.05	100	1	742.50	0.00	0	0	0	0	0	0	0	0	0	0	0;
16	290.1800	73.7579	243.00	-115.00	1.05	100	1	757.50	0.00	0	0	0	0	0	0	0	0	0	0	0;
17	290.4318	108.6465	243.00	-120.00	1.05	100	1	757.50	0.00	0	0	0	0	0	0	0	0	0	0	0;
18	290.3847	99.8157	263.00	-120.00	1.05	100	1	742.50	0.00	0	0	0	0	0	0	0	0	0	0	0;
20	290.1997	82.3995	107.40	-56.80	1.05	100	1	300.00	0.00	0	0	0	0	0	0	0	0	0	0	0;
21	290.1997	82.3995	107.40	-56.80	1.05	100	1	300.00	0.00	0	0	0	0	0	0	0	0	0	0	0;
22	144.0000	82.3995	116.20	-59.00	1.05	100	1	144.00	0.00	0	0	0	0	0	0	0	0	0	0	0;
24	305.1217	128.7354	282.71	-180.97	1.05	100	1	790.50	0.00	0	0	0	0	0	0	0	0	0	0	0;
25	305.0020	117.5675	302.66	-174.40	1.05	100	1	790.50	0.00	0	0	0	0	0	0	0	0	0	0	0;
27	304.5867	94.3011	282.71	-180.97	1.05	100	1	790.50	0.00	0	0	0	0	0	0	0	0	0	0	0;
28	304.6193	96.7860	282.71	-180.97	1.05	100	1	790.50	0.00	0	0	0	0	0	0	0	0	0	0	0;
30	286.8438	-27.7783	115.00	-115.00	1.05	100	1	300.00	0.00	0	0	0	0	0	0	0	0	0	0	0;
31	286.8438	-27.7783	115.00	-115.00	1.05	100	1	300.00	0.00	0	0	0	0	0	0	0	0	0	0	0;
32	286.8438	-27.7783	115.00	-115.00	1.05	100	1	300.00	0.00	0	0	0	0	0	0	0	0	0	0	0;
33	286.8438	-27.7783	115.00	-115.00	1.05	100	1	300.00	0.00	0	0	0	0	0	0	0	0	0	0	0;
34	286.8438	-27.7783	115.00	-115.00	1.05	100	1	300.00	0.00	0	0	0	0	0	0	0	0	0	0	0;
35	0.0000	0.0000	  0.00	  0.00	1.01	100	1	0.00	0.00	0	0	0	0	0	0	0	0	0	0	0;
37	288.1762	91.9124	380.00	-198.00	1.05	100	1	973.50	0.00	0	0	0	0	0	0	0	0	0	0	0;
38	288.1763	91.9276	380.00	-198.00	1.05	100	1	973.50	0.00	0	0	0	0	0	0	0	0	0	0	0;
39	288.1758	91.8621	380.00	-198.00	1.05	100	1	973.50	0.00	0	0	0	0	0	0	0	0	0	0	0;
41	288.5539	122.3476	380.00	-184.00	1.05	100	1	973.50	0.00	0	0	0	0	0	0	0	0	0	0	0;
42	288.5536	122.3044	380.00	-184.00	1.05	100	1	973.50	0.00	0	0	0	0	0	0	0	0	0	0	0;
43	288.5850	127.7988	380.00	-184.00	1.05	100	1	973.50	0.00	0	0	0	0	0	0	0	0	0	0	0;
45	314.7812	185.6172	409.00	-217.00	1.05	100	1	811.50	0.00	0	0	0	0	0	0	0	0	0	0	0;
46	314.7630	177.2822	402.00	-227.00	1.05	100	1	811.50	0.00	0	0	0	0	0	0	0	0	0	0	0;
48	289.2201	138.6899	289.00	-84.00	1.05	100	1	724.50	0.00	0	0	0	0	0	0	0	0	0	0	0;
49	288.6363	93.6437	308.00	-84.00	1.05	100	1	724.50	0.00	0	0	0	0	0	0	0	0	0	0	0;
51	288.1725	93.1616	241.00	-81.00	1.05	100	1	732.00	0.00	0	0	0	0	0	0	0	0	0	0	0;
52	288.4486	114.6091	268.00	-82.00	1.05	100	1	732.00	0.00	0	0	0	0	0	0	0	0	0	0	0;
54	0.0000	0.0000	  0.00	  0.00	1.01	100	1	0.00	0.00	0	0	0	0	0	0	0	0	0	0	0;
55	0.0000	0.0000	  0.00	  0.00	1.01	100	1	0.00	0.00	0	0	0	0	0	0	0	0	0	0	0;
57	289.9488	193.7612	286.00	-86.00	1.05	100	1	735.00	0.00	0	0	0	0	0	0	0	0	0	0	0;
59	290.7522	286.0000	286.00	-86.00	1.05	100	1	735.00	0.00	0	0	0	0	0	0	0	0	0	0	0;
61	291.1783	286.0000	286.00	-86.00	1.05	100	1	735.00	0.00	0	0	0	0	0	0	0	0	0	0	0;
62	289.9952	202.9429	287.00	-81.00	1.05	100	1	735.00	0.00	0	0	0	0	0	0	0	0	0	0	0;
64	270.0000	27.2528	 60.00	-60.00	1.05	100	1	270.00	0.00	0	0	0	0	0	0	0	0	0	0	0;
65	135.0000	-10.4599	 30.00	-30.00	1.04	100	1	135.00	0.00	0	0	0	0	0	0	0	0	0	0	0;
67	292.3875	110.3622	308.00	-95.00	1.05	100	1	727.50	0.00	0	0	0	0	0	0	0	0	0	0	0;
69	292.3719	112.5053	311.00	-95.00	1.05	100	1	727.50	0.00	0	0	0	0	0	0	0	0	0	0	0;
71	292.7575	144.0456	329.00	-101.00	1.05	100	1	727.50	0.00	0	0	0	0	0	0	0	0	0	0	0;
73	292.7764	142.4962	203.00	-91.00	1.05	100	1	759.00	0.00	0	0	0	0	0	0	0	0	0	0	0;
75	0.0000	0.0000	  0.00	  0.00	1.00	100	1	0.00	0.00	0	0	0	0	0	0	0	0	0	0	0;
76	0.0000	0.0000	  0.00	  0.00	1.00	100	1	0.00	0.00	0	0	0	0	0	0	0	0	0	0	0;
77	0.0000	0.0000	  0.00	  0.00	1.00	100	1	0.00	0.00	0	0	0	0	0	0	0	0	0	0	0;
78	0.0000	0.0000	  0.00	  0.00	1.00	100	1	0.00	0.00	0	0	0	0	0	0	0	0	0	0	0;
80	287.2248	218.7852	367.00	-210.00	1.05	100	1	906.00	0.00	0	0	0	0	0	0	0	0	0	0	0;
81	287.2549	230.1573	351.00	-208.00	1.05	100	1	906.00	0.00	0	0	0	0	0	0	0	0	0	0	0;
83	300.4165	121.9362	392.00	-206.00	1.05	100	1	910.50	0.00	0	0	0	0	0	0	0	0	0	0	0;
84	300.3998	117.0011	398.00	-207.00	1.05	100	1	894.00	0.00	0	0	0	0	0	0	0	0	0	0	0;
85	300.4498	133.1419	367.00	-188.00	1.05	100	1	900.75	0.00	0	0	0	0	0	0	0	0	0	0	0;
86	300.4500	133.2219	362.00	-187.00	1.05	100	1	903.75	0.00	0	0	0	0	0	0	0	0	0	0	0;
88	320.3082	60.8053	312.00	-155.00	1.05	100	1	966.00	0.00	0	0	0	0	0	0	0	0	0	0	0;
89	320.2899	58.2679	289.00	-204.00	1.05	100	1	925.50	0.00	0	0	0	0	0	0	0	0	0	0	0;
91	298.5716	296.0000	296.00	-99.00	1.05	100	1	723.00	0.00	0	0	0	0	0	0	0	0	0	0	0;
92	298.5988	296.0000	296.00	-92.00	1.05	100	1	723.00	0.00	0	0	0	0	0	0	0	0	0	0	0;
94	285.4042	138.0000	138.00	-75.00	1.05	100	1	367.50	0.00	0	0	0	0	0	0	0	0	0	0	0;
96	285.8162	38.4515	155.00	-72.00	1.05	100	1	367.50	0.00	0	0	0	0	0	0	0	0	0	0	0;
97	285.8163	38.4523	145.90	-79.00	1.05	100	1	367.50	0.00	0	0	0	0	0	0	0	0	0	0	0;
99	216.0000	24.3046	 87.20	-52.80	1.05	100	1	216.00	0.00	0	0	0	0	0	0	0	0	0	0	0;
100	216.0000	36.4629	 87.20	-52.80	1.05	100	1	216.00	0.00	0	0	0	0	0	0	0	0	0	0	0;
101	216.0000	24.3106	 87.20	-52.80	1.05	100	1	216.00	0.00	0	0	0	0	0	0	0	0	0	0	0;
102	216.0000	24.3106	 87.20	-52.80	1.05	100	1	216.00	0.00	0	0	0	0	0	0	0	0	0	0	0;
103	243.0000	31.7963	103.00	-55.00	1.05	100	1	243.00	0.00	0	0	0	0	0	0	0	0	0	0	0;
104	243.0000	31.7963	103.00	-55.00	1.05	100	1	243.00	0.00	0	0	0	0	0	0	0	0	0	0	0;
105	216.9000	24.7567	 75.92	-52.46	1.05	100	1	216.90	0.00	0	0	0	0	0	0	0	0	0	0	0;
106	216.9000	24.7567	 75.92	-52.46	1.05	100	1	216.90	0.00	0	0	0	0	0	0	0	0	0	0	0;
107	216.9000	24.7567	 75.92	-52.46	1.05	100	1	216.90	0.00	0	0	0	0	0	0	0	0	0	0	0;
108	281.6044	34.4504	139.82	-78.06	1.05	100	1	346.80	0.00	0	0	0	0	0	0	0	0	0	0	0;
110	303.2960	80.9664	286.00	-64.00	1.05	100	1	727.50	0.00	0	0	0	0	0	0	0	0	0	0	0;
111	303.3132	82.8649	286.00	-64.00	1.05	100	1	727.50	0.00	0	0	0	0	0	0	0	0	0	0	0;
113	302.5446	80.3976	286.00	-64.00	1.05	100	1	727.50	0.00	0	0	0	0	0	0	0	0	0	0	0;
114	302.5428	80.1999	286.00	-64.00	1.05	100	1	727.50	0.00	0	0	0	0	0	0	0	0	0	0	0;
116	297.3915	128.0000	128.00	-78.00	1.05	100	1	315.00	0.00	0	0	0	0	0	0	0	0	0	0	0;
117	297.4102	128.0000	128.00	-78.00	1.05	100	1	315.00	0.00	0	0	0	0	0	0	0	0	0	0	0;
118	297.6882	158.0000	158.00	-84.00	1.05	100	1	367.50	0.00	0	0	0	0	0	0	0	0	0	0	0;
120	306.8929	63.1703	335.00	-204.00	1.05	100	1	750.00	0.00	0	0	0	0	0	0	0	0	0	0	0;
121	306.8755	61.4142	335.00	-204.00	1.05	100	1	750.00	0.00	0	0	0	0	0	0	0	0	0	0	0;
122	0.0000	0.0000	  0.00	  0.00	1.00	100	1	0.00	0.00	0	0	0	0	0	0	0	0	0	0	0;
124	291.7829	6.5327	149.00	-88.00	1.05	100	1	340.05	0.00	0	0	0	0	0	0	0	0	0	0	0;
125	291.7673	6.5241	151.00	-87.00	1.05	100	1	340.05	0.00	0	0	0	0	0	0	0	0	0	0	0;
126	291.7032	6.4893	164.00	-81.00	1.05	100	1	340.05	0.00	0	0	0	0	0	0	0	0	0	0	0;
128	299.9062	255.0000	255.00	-79.00	1.05	100	1	750.00	0.00	0	0	0	0	0	0	0	0	0	0	0;
129	300.3579	255.0000	255.00	-79.00	1.05	100	1	750.00	0.00	0	0	0	0	0	0	0	0	0	0	0;
131	300.8971	255.0000	255.00	-79.00	1.05	100	1	750.00	0.00	0	0	0	0	0	0	0	0	0	0	0;
132	300.2242	255.0000	255.00	-18.00	1.05	100	1	750.00	0.00	0	0	0	0	0	0	0	0	0	0	0;
134	299.9039	201.1937	270.00	-86.00	1.05	100	1	747.00	0.00	0	0	0	0	0	0	0	0	0	0	0;
135	299.9061	201.4642	270.00	-86.00	1.05	100	1	747.00	0.00	0	0	0	0	0	0	0	0	0	0	0;
137	228.0000	69.4404	 88.00	-50.00	1.05	100	1	228.00	0.00	0	0	0	0	0	0	0	0	0	0	0;
138	228.0000	88.0000	 88.00	-50.00	1.05	100	1	228.00	0.00	0	0	0	0	0	0	0	0	0	0	0;
139	228.0000	69.4065	 88.00	-50.00	1.05	100	1	228.00	0.00	0	0	0	0	0	0	0	0	0	0	0;
140	300.6296	114.0000	114.00	-88.00	1.05	100	1	388.50	0.00	0	0	0	0	0	0	0	0	0	0	0;
142	308.8195	254.4729	386.00	-211.00	1.05	100	1	892.50	0.00	0	0	0	0	0	0	0	0	0	0	0;
143	308.8194	254.4145	385.00	-204.00	1.05	100	1	892.50	0.00	0	0	0	0	0	0	0	0	0	0	0;
145	230.2500	41.3919	 72.00	-48.00	1.05	100	1	230.25	0.00	0	0	0	0	0	0	0	0	0	0	0;
146	230.2500	44.9264	 72.00	-48.00	1.05	100	1	230.25	0.00	0	0	0	0	0	0	0	0	0	0	0;
147	230.2500	44.9264	 72.00	-48.00	1.05	100	1	230.25	0.00	0	0	0	0	0	0	0	0	0	0	0;
148	230.2500	43.0574	 72.00	-48.00	1.05	100	1	230.25	0.00	0	0	0	0	0	0	0	0	0	0	0;
150	230.2500	43.4075	 72.00	-48.00	1.05	100	1	230.25	0.00	0	0	0	0	0	0	0	0	0	0	0;
151	230.2500	41.3691	 72.00	-48.00	1.05	100	1	230.25	0.00	0	0	0	0	0	0	0	0	0	0	0;
152	230.2500	43.4075	 72.00	-48.00	1.05	100	1	230.25	0.00	0	0	0	0	0	0	0	0	0	0	0;
153	230.2500	43.3885	 72.00	-48.00	1.05	100	1	230.25	0.00	0	0	0	0	0	0	0	0	0	0	0;
154	279.9960	93.7154	192.00	-114.00	1.05	100	1	485.25	0.00	0	0	0	0	0	0	0	0	0	0	0;
155	280.0471	96.5447	192.00	-114.00	1.05	100	1	485.25	0.00	0	0	0	0	0	0	0	0	0	0	0;
156	0.0000	0.0000	  0.00	  0.00	1.01	100	1	0.00	0.00	0	0	0	0	0	0	0	0	0	0	0;
158	0.0000	0.0000	  0.00	  0.00	0.99	100	1	0.00	0.00	0	0	0	0	0	0	0	0	0	0	0;
159	299.7712	48.1379	175.00	-60.00	1.05	100	1	525.00	0.00	0	0	0	0	0	0	0	0	0	0	0;
161	301.6298	110.4841	175.00	-60.00	1.05	100	1	525.00	0.00	0	0	0	0	0	0	0	0	0	0	0;
162	299.2064	29.9328	190.00	-56.40	1.05	100	1	525.00	0.00	0	0	0	0	0	0	0	0	0	0	0;
164	289.3071	158.3805	287.00	-110.00	1.05	100	1	724.50	0.00	0	0	0	0	0	0	0	0	0	0	0;
165	289.2751	154.3879	252.00	-107.00	1.05	100	1	754.50	0.00	0	0	0	0	0	0	0	0	0	0	0;
166	289.3216	160.2605	252.00	-107.00	1.05	100	1	754.50	0.00	0	0	0	0	0	0	0	0	0	0	0;
167	289.3064	158.2901	287.00	-110.00	1.05	100	1	724.50	0.00	0	0	0	0	0	0	0	0	0	0	0;
169	293.3221	15.1970	182.00	-85.00	1.05	100	1	367.50	0.00	0	0	0	0	0	0	0	0	0	0	0;
170	293.3060	15.0375	179.00	-83.00	1.05	100	1	367.50	0.00	0	0	0	0	0	0	0	0	0	0	0;
171	293.3849	15.8506	176.00	-83.00	1.05	100	1	367.50	0.00	0	0	0	0	0	0	0	0	0	0	0;
172	293.9031	24.5442	178.00	-80.00	1.05	100	1	367.50	0.00	0	0	0	0	0	0	0	0	0	0	0;
174	291.4693	143.7738	220.00	-124.00	1.05	100	1	517.50	0.00	0	0	0	0	0	0	0	0	0	0	0;
175	291.4692	143.7552	220.00	-124.00	1.05	100	1	517.50	0.00	0	0	0	0	0	0	0	0	0	0	0;
176	291.4688	143.6918	220.00	-124.00	1.05	100	1	517.50	0.00	0	0	0	0	0	0	0	0	0	0	0;
177	291.4690	143.7179	221.00	-124.00	1.05	100	1	517.50	0.00	0	0	0	0	0	0	0	0	0	0	0;
178	304.2646	75.1717	 91.00	-62.00	1.05	100	1	349.50	0.00	0	0	0	0	0	0	0	0	0	0	0;
179	304.2646	75.1717	 91.00	-62.00	1.05	100	1	349.50	0.00	0	0	0	0	0	0	0	0	0	0	0;
180	304.4259	83.6778	119.00	-73.00	1.05	100	1	426.00	0.00	0	0	0	0	0	0	0	0	0	0	0;
182	0.0000	0.0000	  0.00	  0.00	1.01	100	1	0.00	0.00	0	0	0	0	0	0	0	0	0	0	0;
184	253.5000	36.5084	103.00	-55.00	1.05	100	1	253.50	0.00	0	0	0	0	0	0	0	0	0	0	0;
185	253.5000	36.5034	 96.00	-59.00	1.05	100	1	253.50	0.00	0	0	0	0	0	0	0	0	0	0	0;
186	253.5000	38.7953	 94.00	-60.00	1.05	100	1	253.50	0.00	0	0	0	0	0	0	0	0	0	0	0;
187	281.8467	71.7604	164.00	-91.00	1.05	100	1	393.00	0.00	0	0	0	0	0	0	0	0	0	0	0;
188	304.7504	94.0000	 94.00	-61.00	1.05	100	1	345.00	0.00	0	0	0	0	0	0	0	0	0	0	0;
189	304.7504	99.4157	103.00	-57.00	1.05	100	1	345.00	0.00	0	0	0	0	0	0	0	0	0	0	0;
190	304.9144	110.5462	154.00	-81.00	1.05	100	1	435.00	0.00	0	0	0	0	0	0	0	0	0	0	0;
191	261.0000	35.9866	 94.00	-57.00	1.05	100	1	261.00	0.00	0	0	0	0	0	0	0	0	0	0	0;
192	261.0000	35.9817	 94.00	-57.00	1.05	100	1	261.00	0.00	0	0	0	0	0	0	0	0	0	0	0;
193	252.0000	36.7860	107.00	-57.00	1.05	100	1	252.00	0.00	0	0	0	0	0	0	0	0	0	0	0;
195	290.9585	98.3396	225.60	-123.00	1.05	100	1	373.50	0.00	0	0	0	0	0	0	0	0	0	0	0;
196	290.9585	98.3396	225.60	-123.00	1.05	100	1	373.50	0.00	0	0	0	0	0	0	0	0	0	0	0;
197	290.9585	98.3396	229.40	-117.60	1.05	100	1	375.00	0.00	0	0	0	0	0	0	0	0	0	0	0;
199	294.2835	134.2900	134.29	-95.64	1.05	100	1	400.05	0.00	0	0	0	0	0	0	0	0	0	0	0;
200	294.2835	134.2900	134.29	-95.64	1.05	100	1	400.05	0.00	0	0	0	0	0	0	0	0	0	0	0;
201	294.2835	144.5202	162.75	-87.76	1.05	100	1	399.90	0.00	0	0	0	0	0	0	0	0	0	0	0;
203	306.6734	113.6624	138.00	-93.00	1.05	100	1	406.00	0.00	0	0	0	0	0	0	0	0	0	0	0;
204	306.6734	113.6624	138.00	-93.00	1.05	100	1	406.00	0.00	0	0	0	0	0	0	0	0	0	0	0;
205	306.6734	113.6624	155.00	-85.00	1.05	100	1	406.00	0.00	0	0	0	0	0	0	0	0	0	0	0;
206	305.9258	17.3902	209.00	-145.20	1.05	100	1	633.00	0.00	0	0	0	0	0	0	0	0	0	0	0;
208	306.7893	144.3306	298.72	-188.66	1.05	100	1	780.00	0.00	0	0	0	0	0	0	0	0	0	0	0;
209	48.4500	0.7791	 16.90	 -9.80	1.05	100	1	48.45	0.00	0	0	0	0	0	0	0	0	0	0	0;
211	291.9105	35.7986	189.90	-145.10	1.05	100	1	385.50	0.00	0	0	0	0	0	0	0	0	0	0	0;
212	291.9105	35.7986	196.20	-143.80	1.05	100	1	385.50	0.00	0	0	0	0	0	0	0	0	0	0	0;
213	292.0336	39.0941	313.00	-183.50	1.05	100	1	549.00	0.00	0	0	0	0	0	0	0	0	0	0	0;
215	302.0171	47.3157	166.00	-93.00	1.05	100	1	409.50	0.00	0	0	0	0	0	0	0	0	0	0	0;
216	302.0171	47.3157	155.00	-94.00	1.05	100	1	409.50	0.00	0	0	0	0	0	0	0	0	0	0	0;
217	302.0171	47.3157	159.00	-89.00	1.05	100	1	388.50	0.00	0	0	0	0	0	0	0	0	0	0	0;
219	301.3644	93.8676	167.00	-106.00	1.05	100	1	371.50	0.00	0	0	0	0	0	0	0	0	0	0	0;
220	301.3644	93.8676	167.00	-106.00	1.05	100	1	371.50	0.00	0	0	0	0	0	0	0	0	0	0	0;
221	301.3644	93.8676	196.00	-94.00	1.05	100	1	371.50	0.00	0	0	0	0	0	0	0	0	0	0	0;
222	290.4957	123.4471	220.00	-136.73	1.05	100	1	592.50	0.00	0	0	0	0	0	0	0	0	0	0	0;
224	284.2307	38.6543	248.68	-139.23	1.05	100	1	550.50	0.00	0	0	0	0	0	0	0	0	0	0	0;
225	284.2307	38.6543	248.68	-139.23	1.05	100	1	550.50	0.00	0	0	0	0	0	0	0	0	0	0	0;
226	284.2307	38.6543	248.68	-139.23	1.05	100	1	550.50	0.00	0	0	0	0	0	0	0	0	0	0	0;
228	316.6388	43.1765	250.00	-138.00	1.02	100	1	637.50	0.00	0	0	0	0	0	0	0	0	0	0	0;
229	316.6388	43.1723	250.00	-138.00	1.02	100	1	637.50	0.00	0	0	0	0	0	0	0	0	0	0	0;
231	304.9596	-26.5535	250.00	-140.00	1.05	100	1	600.00	0.00	0	0	0	0	0	0	0	0	0	0	0;
232	304.9596	-26.5535	250.00	-140.00	1.05	100	1	600.00	0.00	0	0	0	0	0	0	0	0	0	0	0;
234	66.0000	5.6624	 25.00	-14.00	1.05	100	1	66.00	0.00	0	0	0	0	0	0	0	0	0	0	0;
235	66.0000	5.6624	 25.00	-14.00	1.05	100	1	66.00	0.00	0	0	0	0	0	0	0	0	0	0	0;
236	67.5000	5.6624	 25.00	-14.00	1.05	100	1	67.50	0.00	0	0	0	0	0	0	0	0	0	0	0;
237	67.5000	5.6624	 25.00	-14.00	1.05	100	1	67.50	0.00	0	0	0	0	0	0	0	0	0	0	0;
238	67.5000	5.6624	 25.00	-14.00	1.05	100	1	67.50	0.00	0	0	0	0	0	0	0	0	0	0	0;
239	67.5000	5.6624	 25.00	-14.00	1.05	100	1	67.50	0.00	0	0	0	0	0	0	0	0	0	0	0;
241	282.6396	57.3225	158.63	-90.39	1.05	100	1	363.75	0.00	0	0	0	0	0	0	0	0	0	0	0;
242	282.6396	57.3225	158.63	-90.39	1.05	100	1	363.75	0.00	0	0	0	0	0	0	0	0	0	0	0;
243	175.5000	23.3416	 74.57	-37.80	1.05	100	1	175.50	0.00	0	0	0	0	0	0	0	0	0	0	0;
244	175.5000	23.3416	 74.57	-37.80	1.05	100	1	175.50	0.00	0	0	0	0	0	0	0	0	0	0	0;
249	310.0921	50.1858	194.00	-91.00	1.05	100	1	342.00	0.00	0	0	0	0	0	0	0	0	0	0	0;
251	310.2737	31.6413	180.00	-86.00	1.05	100	1	363.00	0.00	0	0	0	0	0	0	0	0	0	0	0;
253	90.0000	24.2725	 41.00	-21.00	1.05	100	1	90.00	0.00	0	0	0	0	0	0	0	0	0	0	0;
254	253.5000	51.6601	100.00	-57.00	1.05	100	1	253.50	0.00	0	0	0	0	0	0	0	0	0	0	0;
256	55.5000	3.1319	 28.00	-15.00	1.05	100	1	55.50	0.00	0	0	0	0	0	0	0	0	0	0	0;
257	55.5000	3.0633	 24.00	-16.00	1.05	100	1	55.50	0.00	0	0	0	0	0	0	0	0	0	0	0;
258	55.5000	3.1319	 24.00	-16.00	1.05	100	1	55.50	0.00	0	0	0	0	0	0	0	0	0	0	0;
259	66.0000	4.1681	 34.00	-17.00	1.05	100	1	66.00	0.00	0	0	0	0	0	0	0	0	0	0	0;
261	307.3149	105.4850	331.50	-147.70	1.05	100	1	630.00	0.00	0	0	0	0	0	0	0	0	0	0	0;
263	105.0000	34.8232	 44.40	-27.90	1.05	100	1	105.00	0.00	0	0	0	0	0	0	0	0	0	0	0;
264	105.0000	34.0152	 44.40	-27.90	1.05	100	1	105.00	0.00	0	0	0	0	0	0	0	0	0	0	0;
265	105.0000	33.9943	 49.00	-23.50	1.05	100	1	105.00	0.00	0	0	0	0	0	0	0	0	0	0	0;
270	304.2017	137.6650	273.40	-140.70	1.05	100	1	585.00	0.00	0	0	0	0	0	0	0	0	0	0	0;
272	255.0000	19.7512	 70.00	-51.00	1.05	100	1	255.00	0.00	0	0	0	0	0	0	0	0	0	0	0;
273	112.5000	10.4133	 33.00	-23.00	1.05	100	1	112.50	0.00	0	0	0	0	0	0	0	0	0	0	0;
275	181.5000	28.7100	 39.80	-39.80	1.05	100	1	181.50	0.00	0	0	0	0	0	0	0	0	0	0	0;
276	181.5000	28.7100	 39.80	-39.80	1.05	100	1	181.50	0.00	0	0	0	0	0	0	0	0	0	0	0;
...
];
%% Transmission Lines Data
mpc.branch = [
1	2	0.00089	0.02682	0.00000	9900.00	9900.00	9900.00	0.9991	0.00	1	-360.00	360.00;
1	3	0.00055	0.02700	0.00000	9900.00	9900.00	9900.00	0.9999	0.00	1	-360.00	360.00;
1	4	0.00080	0.02677	0.00000	9900.00	9900.00	9900.00	0.9992	0.00	1	-360.00	360.00;
5	6	0.00213	0.11452	0.00000	9900.00	9900.00	9900.00	1.0138	0.00	1	-360.00	360.00;
5	7	0.00213	0.11471	0.00000	9900.00	9900.00	9900.00	1.0138	0.00	1	-360.00	360.00;
8	9	0.00213	0.11316	0.00000	9900.00	9900.00	9900.00	1.0130	0.00	1	-360.00	360.00;
8	10	0.00206	0.11458	0.00000	9900.00	9900.00	9900.00	1.0139	0.00	1	-360.00	360.00;
8	11	0.00206	0.11490	0.00000	9900.00	9900.00	9900.00	1.0139	0.00	1	-360.00	360.00;
5	12	0.00194	0.10912	0.00000	9900.00	9900.00	9900.00	1.0138	0.00	1	-360.00	360.00;
8	13	0.00100	0.08396	0.00000	9900.00	9900.00	9900.00	1.0221	0.00	1	-360.00	360.00;
14	15	0.00030	0.02828	0.00000	9900.00	9900.00	9900.00	1.0282	0.00	1	-360.00	360.00;
14	16	0.00048	0.02805	0.00000	9900.00	9900.00	9900.00	1.0175	0.00	1	-360.00	360.00;
14	17	0.00032	0.02788	0.00000	9900.00	9900.00	9900.00	1.0261	0.00	1	-360.00	360.00;
14	18	0.00035	0.02780	0.00000	9900.00	9900.00	9900.00	1.0238	0.00	1	-360.00	360.00;
19	20	0.00130	0.06616	0.00000	9900.00	9900.00	9900.00	1.0337	0.00	1	-360.00	360.00;
19	21	0.00130	0.06616	0.00000	9900.00	9900.00	9900.00	1.0337	0.00	1	-360.00	360.00;
19	22	0.00130	0.06616	0.00000	9900.00	9900.00	9900.00	1.0445	0.00	1	-360.00	360.00;
23	24	0.00068	0.02772	0.00000	9900.00	9900.00	9900.00	1.0313	0.00	1	-360.00	360.00;
23	25	0.00075	0.02715	0.00000	9900.00	9900.00	9900.00	1.0280	0.00	1	-360.00	360.00;
26	27	0.00070	0.02673	0.00000	9900.00	9900.00	9900.00	1.0224	0.00	1	-360.00	360.00;
26	28	0.00068	0.02767	0.00000	9900.00	9900.00	9900.00	1.0237	0.00	1	-360.00	360.00;
29	30	0.00070	0.04677	0.00000	9900.00	9900.00	9900.00	0.9796	0.00	1	-360.00	360.00;
29	31	0.00070	0.04677	0.00000	9900.00	9900.00	9900.00	0.9796	0.00	1	-360.00	360.00;
29	32	0.00070	0.04677	0.00000	9900.00	9900.00	9900.00	0.9796	0.00	1	-360.00	360.00;
29	33	0.00070	0.04677	0.00000	9900.00	9900.00	9900.00	0.9796	0.00	1	-360.00	360.00;
29	34	0.00070	0.04677	0.00000	9900.00	9900.00	9900.00	0.9796	0.00	1	-360.00	360.00;
29	35	0.00070	0.04677	0.00000	9900.00	9900.00	9900.00	1.0386	0.00	1	-360.00	360.00;
36	37	0.00039	0.01976	0.00000	9900.00	9900.00	9900.00	1.0163	0.00	1	-360.00	360.00;
36	38	0.00039	0.01966	0.00000	9900.00	9900.00	9900.00	1.0163	0.00	1	-360.00	360.00;
36	39	0.00039	0.02009	0.00000	9900.00	9900.00	9900.00	1.0166	0.00	1	-360.00	360.00;
40	41	0.00045	0.01915	0.00000	9900.00	9900.00	9900.00	1.0211	0.00	1	-360.00	360.00;
40	42	0.00045	0.01931	0.00000	9900.00	9900.00	9900.00	1.0213	0.00	1	-360.00	360.00;
40	43	0.00043	0.01911	0.00000	9900.00	9900.00	9900.00	1.0220	0.00	1	-360.00	360.00;
44	45	0.00020	0.02043	0.00000	9900.00	9900.00	9900.00	1.0319	0.00	1	-360.00	360.00;
44	46	0.00021	0.02056	0.00000	9900.00	9900.00	9900.00	1.0305	0.00	1	-360.00	360.00;
47	48	0.00073	0.02523	0.00000	9900.00	9900.00	9900.00	1.0302	0.00	1	-360.00	360.00;
47	49	0.00110	0.02770	0.00000	9900.00	9900.00	9900.00	1.0221	0.00	1	-360.00	360.00;
50	51	0.00091	0.02577	0.00000	9900.00	9900.00	9900.00	1.0205	0.00	1	-360.00	360.00;
50	52	0.00073	0.02702	0.00000	9900.00	9900.00	9900.00	1.0263	0.00	1	-360.00	360.00;
53	54	0.00073	0.02523	0.00000	9900.00	9900.00	9900.00	1.0175	0.00	1	-360.00	360.00;
53	55	0.00073	0.02532	0.00000	9900.00	9900.00	9900.00	1.0175	0.00	1	-360.00	360.00;
56	57	0.00059	0.02800	0.00000	9900.00	9900.00	9900.00	1.0500	0.00	1	-360.00	360.00;
58	59	0.00030	0.02778	0.00000	9900.00	9900.00	9900.00	1.0747	0.00	1	-360.00	360.00;
60	61	0.00062	0.02754	0.00000	9900.00	9900.00	9900.00	1.0659	0.00	1	-360.00	360.00;
56	62	0.00056	0.02818	0.00000	9900.00	9900.00	9900.00	1.0528	0.00	1	-360.00	360.00;
63	64	0.00400	0.09778	0.00000	9900.00	9900.00	9900.00	0.0000	0.00	1	-360.00	360.00;
63	65	0.00400	0.09778	0.00000	9900.00	9900.00	9900.00	0.0000	0.00	1	-360.00	360.00;
66	67	0.00045	0.02930	0.00000	9900.00	9900.00	9900.00	1.0281	0.00	1	-360.00	360.00;
68	69	0.00040	0.02928	0.00000	9900.00	9900.00	9900.00	1.0285	0.00	1	-360.00	360.00;
70	71	0.00045	0.02893	0.00000	9900.00	9900.00	9900.00	1.0371	0.00	1	-360.00	360.00;
72	73	0.00045	0.02773	0.00000	9900.00	9900.00	9900.00	1.0353	0.00	1	-360.00	360.00;
74	75	0.00025	0.01910	0.00000	9900.00	9900.00	9900.00	1.0497	0.00	1	-360.00	360.00;
74	76	0.00021	0.01910	0.00000	9900.00	9900.00	9900.00	1.0497	0.00	1	-360.00	360.00;
74	77	0.00023	0.01933	0.00000	9900.00	9900.00	9900.00	1.0497	0.00	1	-360.00	360.00;
74	78	0.00020	0.01957	0.00000	9900.00	9900.00	9900.00	1.0497	0.00	1	-360.00	360.00;
79	80	0.00037	0.02177	0.00000	9900.00	9900.00	9900.00	1.0442	0.00	1	-360.00	360.00;
79	81	0.00035	0.02177	0.00000	9900.00	9900.00	9900.00	1.0465	0.00	1	-360.00	360.00;
82	83	0.00023	0.02024	0.00000	9900.00	9900.00	9900.00	1.0218	0.00	1	-360.00	360.00;
82	84	0.00024	0.02053	0.00000	9900.00	9900.00	9900.00	1.0212	0.00	1	-360.00	360.00;
82	85	0.00021	0.01975	0.00000	9900.00	9900.00	9900.00	1.0234	0.00	1	-360.00	360.00;
82	86	0.00021	0.01950	0.00000	9900.00	9900.00	9900.00	1.0231	0.00	1	-360.00	360.00;
87	88	0.00022	0.02133	0.00000	9900.00	9900.00	9900.00	1.0101	0.00	1	-360.00	360.00;
87	89	0.00023	0.02056	0.00000	9900.00	9900.00	9900.00	1.0093	0.00	1	-360.00	360.00;
90	91	0.00075	0.02735	0.00000	9900.00	9900.00	9900.00	1.0725	0.00	1	-360.00	360.00;
90	92	0.00073	0.02805	0.00000	9900.00	9900.00	9900.00	1.0745	0.00	1	-360.00	360.00;
93	94	0.00057	0.05251	0.00000	9900.00	9900.00	9900.00	1.0590	0.00	1	-360.00	360.00;
95	96	0.00057	0.05245	0.00000	9900.00	9900.00	9900.00	1.0078	0.00	1	-360.00	360.00;
95	97	0.00057	0.05242	0.00000	9900.00	9900.00	9900.00	1.0078	0.00	1	-360.00	360.00;
98	99	0.00167	0.07167	0.00000	9900.00	9900.00	9900.00	1.0091	0.00	1	-360.00	360.00;
98	100	0.00110	0.06517	0.00000	9900.00	9900.00	9900.00	1.0155	0.00	1	-360.00	360.00;
98	101	0.00167	0.07111	0.00000	9900.00	9900.00	9900.00	1.0091	0.00	1	-360.00	360.00;
98	102	0.00167	0.07111	0.00000	9900.00	9900.00	9900.00	1.0091	0.00	1	-360.00	360.00;
98	103	0.00127	0.06341	0.00000	9900.00	9900.00	9900.00	1.0112	0.00	1	-360.00	360.00;
98	104	0.00127	0.06341	0.00000	9900.00	9900.00	9900.00	1.0112	0.00	1	-360.00	360.00;
98	105	0.00164	0.06970	0.00000	9900.00	9900.00	9900.00	1.0093	0.00	1	-360.00	360.00;
98	106	0.00164	0.06970	0.00000	9900.00	9900.00	9900.00	1.0093	0.00	1	-360.00	360.00;
98	107	0.00164	0.06970	0.00000	9900.00	9900.00	9900.00	1.0093	0.00	1	-360.00	360.00;
98	108	0.00118	0.04815	0.00000	9900.00	9900.00	9900.00	1.0104	0.00	1	-360.00	360.00;
109	110	0.00042	0.02838	0.00000	9900.00	9900.00	9900.00	1.0186	0.00	1	-360.00	360.00;
109	111	0.00041	0.02832	0.00000	9900.00	9900.00	9900.00	1.0190	0.00	1	-360.00	360.00;
112	113	0.00041	0.02692	0.00000	9900.00	9900.00	9900.00	1.0181	0.00	1	-360.00	360.00;
112	114	0.00041	0.02862	0.00000	9900.00	9900.00	9900.00	1.0190	0.00	1	-360.00	360.00;
115	116	0.00048	0.06271	0.00000	9900.00	9900.00	9900.00	1.0617	0.00	1	-360.00	360.00;
115	117	0.00047	0.06227	0.00000	9900.00	9900.00	9900.00	1.0613	0.00	1	-360.00	360.00;
115	118	0.00034	0.04974	0.00000	9900.00	9900.00	9900.00	1.0658	0.00	1	-360.00	360.00;
119	120	0.00034	0.01961	0.00000	9900.00	9900.00	9900.00	1.0041	0.00	1	-360.00	360.00;
119	121	0.00035	0.01947	0.00000	9900.00	9900.00	9900.00	1.0037	0.00	1	-360.00	360.00;
119	122	0.00035	0.01954	0.00000	9900.00	9900.00	9900.00	1.0464	0.00	1	-360.00	360.00;
123	124	0.00747	0.05421	0.00000	9900.00	9900.00	9900.00	1.0112	0.00	1	-360.00	360.00;
123	125	0.00748	0.05407	0.00000	9900.00	9900.00	9900.00	1.0113	0.00	1	-360.00	360.00;
123	126	0.00752	0.05452	0.00000	9900.00	9900.00	9900.00	1.0112	0.00	1	-360.00	360.00;
127	128	0.00042	0.02698	0.00000	9900.00	9900.00	9900.00	1.0574	0.00	1	-360.00	360.00;
127	129	0.00019	0.01961	0.00000	9900.00	9900.00	9900.00	1.0394	0.00	1	-360.00	360.00;
130	131	0.00019	0.01964	0.00000	9900.00	9900.00	9900.00	1.0330	0.00	1	-360.00	360.00;
130	132	0.00056	0.02456	0.00000	9900.00	9900.00	9900.00	1.0457	0.00	1	-360.00	360.00;
133	134	0.00089	0.02490	0.00000	9900.00	9900.00	9900.00	1.0475	0.00	1	-360.00	360.00;
133	135	0.00089	0.02453	0.00000	9900.00	9900.00	9900.00	1.0469	0.00	1	-360.00	360.00;
136	137	0.00167	0.07100	0.00000	9900.00	9900.00	9900.00	1.0349	0.00	1	-360.00	360.00;
136	138	0.00127	0.06390	0.00000	9900.00	9900.00	9900.00	1.0430	0.00	1	-360.00	360.00;
136	139	0.00167	0.07139	0.00000	9900.00	9900.00	9900.00	1.0350	0.00	1	-360.00	360.00;
136	140	0.00098	0.04423	0.00000	9900.00	9900.00	9900.00	1.0390	0.00	1	-360.00	360.00;
141	142	0.00022	0.01963	0.00000	9900.00	9900.00	9900.00	1.0462	0.00	1	-360.00	360.00;
141	143	0.00022	0.01968	0.00000	9900.00	9900.00	9900.00	1.0463	0.00	1	-360.00	360.00;
144	145	0.00140	0.10349	0.00000	9900.00	9900.00	9900.00	1.0133	0.00	1	-360.00	360.00;
144	146	0.00128	0.10405	0.00000	9900.00	9900.00	9900.00	1.0163	0.00	1	-360.00	360.00;
144	147	0.00128	0.10405	0.00000	9900.00	9900.00	9900.00	1.0163	0.00	1	-360.00	360.00;
144	148	0.00134	0.10465	0.00000	9900.00	9900.00	9900.00	1.0146	0.00	1	-360.00	360.00;
149	150	0.00133	0.10349	0.00000	9900.00	9900.00	9900.00	1.0150	0.00	1	-360.00	360.00;
149	151	0.00140	0.10465	0.00000	9900.00	9900.00	9900.00	1.0131	0.00	1	-360.00	360.00;
149	152	0.00133	0.10349	0.00000	9900.00	9900.00	9900.00	1.0150	0.00	1	-360.00	360.00;
149	153	0.00133	0.10405	0.00000	9900.00	9900.00	9900.00	1.0149	0.00	1	-360.00	360.00;
144	154	0.00062	0.04425	0.00000	9900.00	9900.00	9900.00	1.0287	0.00	1	-360.00	360.00;
149	155	0.00060	0.04475	0.00000	9900.00	9900.00	9900.00	1.0301	0.00	1	-360.00	360.00;
144	156	0.01254	0.48109	0.00000	9900.00	9900.00	9900.00	1.0419	0.00	1	-360.00	360.00;
157	158	0.00193	0.04390	0.00000	9900.00	9900.00	9900.00	1.0590	0.00	1	-360.00	360.00;
157	159	0.00187	0.04358	0.00000	9900.00	9900.00	9900.00	1.0144	0.00	1	-360.00	360.00;
160	161	0.00049	0.04264	0.00000	9900.00	9900.00	9900.00	1.0383	0.00	1	-360.00	360.00;
160	162	0.00193	0.04365	0.00000	9900.00	9900.00	9900.00	1.0101	0.00	1	-360.00	360.00;
163	164	0.00073	0.02693	0.00000	9900.00	9900.00	9900.00	1.0394	0.00	1	-360.00	360.00;
163	165	0.00075	0.02713	0.00000	9900.00	9900.00	9900.00	1.0386	0.00	1	-360.00	360.00;
163	166	0.00072	0.02725	0.00000	9900.00	9900.00	9900.00	1.0403	0.00	1	-360.00	360.00;
163	167	0.00073	0.02713	0.00000	9900.00	9900.00	9900.00	1.0396	0.00	1	-360.00	360.00;
168	169	0.00096	0.04795	0.00000	9900.00	9900.00	9900.00	0.9942	0.00	1	-360.00	360.00;
168	170	0.00097	0.04913	0.00000	9900.00	9900.00	9900.00	0.9939	0.00	1	-360.00	360.00;
168	171	0.00092	0.04751	0.00000	9900.00	9900.00	9900.00	0.9945	0.00	1	-360.00	360.00;
168	172	0.00059	0.04619	0.00000	9900.00	9900.00	9900.00	0.9974	0.00	1	-360.00	360.00;
173	174	0.00046	0.03752	0.00000	9900.00	9900.00	9900.00	1.0469	0.00	1	-360.00	360.00;
173	175	0.00046	0.03757	0.00000	9900.00	9900.00	9900.00	1.0470	0.00	1	-360.00	360.00;
173	176	0.00046	0.03774	0.00000	9900.00	9900.00	9900.00	1.0471	0.00	1	-360.00	360.00;
173	177	0.00046	0.03767	0.00000	9900.00	9900.00	9900.00	1.0471	0.00	1	-360.00	360.00;
26	178	0.00086	0.04807	0.00000	9900.00	9900.00	9900.00	1.0268	0.00	1	-360.00	360.00;
26	179	0.00086	0.04807	0.00000	9900.00	9900.00	9900.00	1.0268	0.00	1	-360.00	360.00;
26	180	0.00077	0.04525	0.00000	9900.00	9900.00	9900.00	1.0292	0.00	1	-360.00	360.00;
181	182	0.00105	0.03622	0.00000	9900.00	9900.00	9900.00	1.0390	0.00	1	-360.00	360.00;
183	184	0.00130	0.06653	0.00000	9900.00	9900.00	9900.00	1.0133	0.00	1	-360.00	360.00;
183	185	0.00130	0.06674	0.00000	9900.00	9900.00	9900.00	1.0133	0.00	1	-360.00	360.00;
183	186	0.00122	0.06637	0.00000	9900.00	9900.00	9900.00	1.0145	0.00	1	-360.00	360.00;
183	187	0.00065	0.04656	0.00000	9900.00	9900.00	9900.00	1.0253	0.00	1	-360.00	360.00;
23	188	0.00086	0.04807	0.00000	9900.00	9900.00	9900.00	1.0345	0.00	1	-360.00	360.00;
23	189	0.00086	0.04807	0.00000	9900.00	9900.00	9900.00	1.0370	0.00	1	-360.00	360.00;
23	190	0.00077	0.04525	0.00000	9900.00	9900.00	9900.00	1.0400	0.00	1	-360.00	360.00;
183	191	0.00132	0.06621	0.00000	9900.00	9900.00	9900.00	1.0124	0.00	1	-360.00	360.00;
183	192	0.00132	0.06642	0.00000	9900.00	9900.00	9900.00	1.0124	0.00	1	-360.00	360.00;
183	193	0.00129	0.06624	0.00000	9900.00	9900.00	9900.00	1.0136	0.00	1	-360.00	360.00;
194	195	0.00077	0.04377	0.00000	9900.00	9900.00	9900.00	1.0346	0.00	1	-360.00	360.00;
194	196	0.00077	0.04377	0.00000	9900.00	9900.00	9900.00	1.0346	0.00	1	-360.00	360.00;
194	197	0.00077	0.04377	0.00000	9900.00	9900.00	9900.00	1.0346	0.00	1	-360.00	360.00;
198	199	0.00058	0.04417	0.00000	9900.00	9900.00	9900.00	1.0503	0.00	1	-360.00	360.00;
198	200	0.00058	0.04417	0.00000	9900.00	9900.00	9900.00	1.0503	0.00	1	-360.00	360.00;
198	201	0.00058	0.04417	0.00000	9900.00	9900.00	9900.00	1.0548	0.00	1	-360.00	360.00;
202	203	0.00007	0.04600	0.00000	9900.00	9900.00	9900.00	1.0399	0.00	1	-360.00	360.00;
202	204	0.00007	0.04600	0.00000	9900.00	9900.00	9900.00	1.0399	0.00	1	-360.00	360.00;
202	205	0.00007	0.04600	0.00000	9900.00	9900.00	9900.00	1.0399	0.00	1	-360.00	360.00;
202	206	0.00050	0.03257	0.00000	9900.00	9900.00	9900.00	1.0019	0.00	1	-360.00	360.00;
207	208	0.00010	0.03477	0.00000	9900.00	9900.00	9900.00	1.0353	0.00	1	-360.00	360.00;
207	209	0.02025	0.41944	0.00000	9900.00	9900.00	9900.00	0.9882	0.00	1	-360.00	360.00;
210	211	0.00089	0.04754	0.00000	9900.00	9900.00	9900.00	1.0099	0.00	1	-360.00	360.00;
210	212	0.00089	0.04754	0.00000	9900.00	9900.00	9900.00	1.0099	0.00	1	-360.00	360.00;
210	213	0.00082	0.03506	0.00000	9900.00	9900.00	9900.00	1.0103	0.00	1	-360.00	360.00;
214	215	0.00068	0.04364	0.00000	9900.00	9900.00	9900.00	1.0135	0.00	1	-360.00	360.00;
214	216	0.00068	0.04364	0.00000	9900.00	9900.00	9900.00	1.0135	0.00	1	-360.00	360.00;
214	217	0.00068	0.04364	0.00000	9900.00	9900.00	9900.00	1.0135	0.00	1	-360.00	360.00;
218	219	0.00069	0.04047	0.00000	9900.00	9900.00	9900.00	1.0305	0.00	1	-360.00	360.00;
218	220	0.00069	0.04047	0.00000	9900.00	9900.00	9900.00	1.0305	0.00	1	-360.00	360.00;
218	221	0.00069	0.04047	0.00000	9900.00	9900.00	9900.00	1.0305	0.00	1	-360.00	360.00;
14	222	0.00028	0.02700	0.00000	9900.00	9900.00	9900.00	1.0291	0.00	1	-360.00	360.00;
223	224	0.00056	0.03804	0.00000	9900.00	9900.00	9900.00	1.0068	0.00	1	-360.00	360.00;
223	225	0.00056	0.03804	0.00000	9900.00	9900.00	9900.00	1.0068	0.00	1	-360.00	360.00;
223	226	0.00056	0.03804	0.00000	9900.00	9900.00	9900.00	1.0068	0.00	1	-360.00	360.00;
227	228	0.00000	0.02941	0.00000	9900.00	9900.00	9900.00	1.0452	0.00	1	-360.00	360.00;
227	229	0.00000	0.02941	0.00000	9900.00	9900.00	9900.00	1.0452	0.00	1	-360.00	360.00;
230	231	0.00127	0.03200	0.00000	9900.00	9900.00	9900.00	0.9920	0.00	1	-360.00	360.00;
230	232	0.00127	0.03200	0.00000	9900.00	9900.00	9900.00	0.9920	0.00	1	-360.00	360.00;
233	234	0.00291	0.10909	0.00000	9900.00	9900.00	9900.00	1.0052	0.00	1	-360.00	360.00;
233	235	0.00291	0.10909	0.00000	9900.00	9900.00	9900.00	1.0052	0.00	1	-360.00	360.00;
233	236	0.00291	0.10909	0.00000	9900.00	9900.00	9900.00	1.0052	0.00	1	-360.00	360.00;
233	237	0.00291	0.10909	0.00000	9900.00	9900.00	9900.00	1.0052	0.00	1	-360.00	360.00;
233	238	0.00291	0.10909	0.00000	9900.00	9900.00	9900.00	1.0052	0.00	1	-360.00	360.00;
233	239	0.00291	0.10909	0.00000	9900.00	9900.00	9900.00	1.0052	0.00	1	-360.00	360.00;
240	241	0.00051	0.04776	0.00000	9900.00	9900.00	9900.00	1.0188	0.00	1	-360.00	360.00;
240	242	0.00051	0.04776	0.00000	9900.00	9900.00	9900.00	1.0188	0.00	1	-360.00	360.00;
240	243	0.00126	0.10370	0.00000	9900.00	9900.00	9900.00	1.0103	0.00	1	-360.00	360.00;
240	244	0.00126	0.10370	0.00000	9900.00	9900.00	9900.00	1.0103	0.00	1	-360.00	360.00;
245	246	0.00365	0.17444	0.00000	9900.00	9900.00	9900.00	1.0393	0.00	1	-360.00	360.00;
245	247	0.00364	0.17222	0.00000	9900.00	9900.00	9900.00	1.0393	0.00	1	-360.00	360.00;
248	249	0.00107	0.04493	0.00000	9900.00	9900.00	9900.00	1.0156	0.00	1	-360.00	360.00;
250	251	0.00127	0.03449	0.00000	9900.00	9900.00	9900.00	1.0088	0.00	1	-360.00	360.00;
252	253	0.00320	0.12162	0.00000	9900.00	9900.00	9900.00	1.0241	0.00	1	-360.00	360.00;
252	254	0.00150	0.05952	0.00000	9900.00	9900.00	9900.00	1.0215	0.00	1	-360.00	360.00;
255	256	0.00880	0.24480	0.00000	9900.00	9900.00	9900.00	1.0032	0.00	1	-360.00	360.00;
255	257	0.00900	0.24440	0.00000	9900.00	9900.00	9900.00	1.0032	0.00	1	-360.00	360.00;
255	258	0.00880	0.24440	0.00000	9900.00	9900.00	9900.00	1.0033	0.00	1	-360.00	360.00;
255	259	0.00661	0.18846	0.00000	9900.00	9900.00	9900.00	1.0042	0.00	1	-360.00	360.00;
260	261	0.00053	0.03925	0.00000	9900.00	9900.00	9900.00	1.0316	0.00	1	-360.00	360.00;
262	263	0.00433	0.13400	0.00000	9900.00	9900.00	9900.00	1.0392	0.00	1	-360.00	360.00;
262	264	0.00444	0.13478	0.00000	9900.00	9900.00	9900.00	1.0384	0.00	1	-360.00	360.00;
262	265	0.00444	0.13578	0.00000	9900.00	9900.00	9900.00	1.0386	0.00	1	-360.00	360.00;
266	267	0.00000	0.17778	0.00000	9900.00	9900.00	9900.00	0.9712	0.00	1	-360.00	360.00;
266	268	0.00000	0.17778	0.00000	9900.00	9900.00	9900.00	0.9712	0.00	1	-360.00	360.00;
269	270	0.00052	0.03854	0.00000	9900.00	9900.00	9900.00	1.0346	0.00	1	-360.00	360.00;
...
];
mpc.areas =[
1 1;
];
%% Generator Cost Data (Made up)
mpc.gencost = [
2	0	0	3	0.10	2.00	1.00;
2	0	0	3	0.10	2.00	1.00;
2	0	0	3	0.10	2.00	1.00;
2	0	0	3	0.10	2.00	1.00;
2	0	0	3	0.10	2.00	1.00;
2	0	0	3	0.10	2.00	1.00;
2	0	0	3	0.10	2.00	1.00;
2	0	0	3	0.10	2.00	1.00;
2	0	0	3	0.10	2.00	1.00;
2	0	0	3	0.10	2.00	1.00;
2	0	0	3	0.10	2.00	1.00;
2	0	0	3	0.10	2.00	1.00;
2	0	0	3	0.10	2.00	1.00;
2	0	0	3	0.10	2.00	1.00;
2	0	0	3	0.10	2.00	1.00;
2	0	0	3	0.10	2.00	1.00;
2	0	0	3	0.10	2.00	1.00;
2	0	0	3	0.10	2.00	1.00;
2	0	0	3	0.10	2.00	1.00;
2	0	0	3	0.10	2.00	1.00;
2	0	0	3	0.10	2.00	1.00;
2	0	0	3	0.10	2.00	0.00;
2	0	0	3	0.10	2.00	0.00;
2	0	0	3	0.10	2.00	0.00;
2	0	0	3	0.10	2.00	0.00;
2	0	0	3	0.10	2.00	0.00;
2	0	0	3	0.10	2.00	0.00;
2	0	0	3	0.10	2.00	1.00;
2	0	0	3	0.10	2.00	1.00;
2	0	0	3	0.10	2.00	1.00;
2	0	0	3	0.10	2.00	1.00;
2	0	0	3	0.10	2.00	1.00;
2	0	0	3	0.10	2.00	1.00;
2	0	0	3	0.10	0.50	0.10;
2	0	0	3	0.10	0.50	0.10;
2	0	0	3	0.10	2.00	1.00;
2	0	0	3	0.10	2.00	1.00;
2	0	0	3	0.10	2.00	1.00;
2	0	0	3	0.10	2.00	1.00;
2	0	0	3	0.10	2.00	1.00;
2	0	0	3	0.10	2.00	1.00;
2	0	0	3	0.10	2.00	1.00;
2	0	0	3	0.10	2.00	1.00;
2	0	0	3	0.10	2.00	1.00;
2	0	0	3	0.10	2.00	1.00;
2	0	0	3	0.10	2.00	0.00;
2	0	0	3	0.10	2.00	0.00;
2	0	0	3	0.10	2.00	1.00;
2	0	0	3	0.10	2.00	1.00;
2	0	0	3	0.10	2.00	1.00;
2	0	0	3	0.10	2.00	1.00;
2	0	0	3	0.10	2.00	1.00;
2	0	0	3	0.10	2.00	1.00;
2	0	0	3	0.10	2.00	1.00;
2	0	0	3	0.10	2.00	1.00;
2	0	0	3	0.10	0.50	0.10;
2	0	0	3	0.10	0.50	0.10;
2	0	0	3	0.10	0.50	0.10;
2	0	0	3	0.10	0.50	0.10;
2	0	0	3	0.10	0.50	0.10;
2	0	0	3	0.10	0.50	0.10;
2	0	0	3	0.10	0.50	0.10;
2	0	0	3	0.10	0.50	0.10;
2	0	0	3	0.10	2.00	1.00;
2	0	0	3	0.10	2.00	1.00;
2	0	0	3	0.10	2.00	1.00;
2	0	0	3	0.10	2.00	1.00;
2	0	0	3	0.10	2.00	1.00;
2	0	0	3	0.10	2.00	1.00;
2	0	0	3	0.10	2.00	1.00;
2	0	0	3	0.10	2.00	1.00;
2	0	0	3	0.10	2.00	1.00;
2	0	0	3	0.10	2.00	1.00;
2	0	0	3	0.10	2.00	1.00;
2	0	0	3	0.10	2.00	1.00;
2	0	0	3	0.10	2.00	1.00;
2	0	0	3	0.10	2.00	1.00;
2	0	0	3	0.10	2.00	1.00;
2	0	0	3	0.10	2.00	1.00;
2	0	0	3	0.10	2.00	1.00;
2	0	0	3	0.10	2.00	1.00;
2	0	0	3	0.10	2.00	1.00;
2	0	0	3	0.10	2.00	1.00;
2	0	0	3	0.10	2.00	1.00;
2	0	0	3	0.10	2.00	1.00;
2	0	0	3	0.10	2.00	1.00;
2	0	0	3	0.10	2.00	1.00;
2	0	0	3	0.10	2.00	1.00;
2	0	0	3	0.10	2.00	1.00;
2	0	0	3	0.10	2.00	1.00;
2	0	0	3	0.10	2.00	1.00;
2	0	0	3	0.10	2.00	1.00;
2	0	0	3	0.10	2.00	1.00;
2	0	0	3	0.10	2.00	1.00;
2	0	0	3	0.10	2.00	1.00;
2	0	0	3	0.10	2.00	1.00;
2	0	0	3	0.10	2.00	1.00;
2	0	0	3	0.10	2.00	1.00;
2	0	0	3	0.10	2.00	1.00;
2	0	0	3	0.10	2.00	1.00;
2	0	0	3	0.10	2.00	1.00;
2	0	0	3	0.10	0.50	0.10;
2	0	0	3	0.10	0.50	0.10;
2	0	0	3	0.10	2.00	1.00;
2	0	0	3	0.10	2.00	1.00;
2	0	0	3	0.10	2.00	1.00;
2	0	0	3	0.10	2.00	1.00;
2	0	0	3	0.10	2.00	1.00;
2	0	0	3	0.10	2.00	1.00;
2	0	0	3	0.10	2.00	1.00;
2	0	0	3	0.10	2.00	1.00;
2	0	0	3	0.10	2.00	1.00;
2	0	0	3	0.10	2.00	1.00;
2	0	0	3	0.10	2.00	1.00;
2	0	0	3	0.10	2.00	1.00;
2	0	0	3	0.10	2.00	1.00;
2	0	0	3	0.10	2.00	1.00;
2	0	0	3	0.10	2.00	1.00;
2	0	0	3	0.10	2.00	1.00;
2	0	0	3	0.10	2.00	1.00;
2	0	0	3	0.10	2.00	1.00;
2	0	0	3	0.10	2.00	1.00;
2	0	0	3	0.10	0.50	0.10;
2	0	0	3	0.10	0.50	0.10;
2	0	0	3	0.10	0.50	0.10;
2	0	0	3	0.10	0.50	0.10;
2	0	0	3	0.10	2.00	1.00;
2	0	0	3	0.10	2.00	1.00;
2	0	0	3	0.10	2.00	1.00;
2	0	0	3	0.10	2.00	1.00;
2	0	0	3	0.10	2.00	1.00;
2	0	0	3	0.10	2.00	1.00;
2	0	0	3	0.10	2.00	1.00;
2	0	0	3	0.10	2.00	1.00;
2	0	0	3	0.10	2.00	1.00;
2	0	0	3	0.10	2.00	1.00;
2	0	0	3	0.10	2.00	1.00;
2	0	0	3	0.10	2.00	1.00;
2	0	0	3	0.10	2.00	1.00;
2	0	0	3	0.10	2.00	1.00;
2	0	0	3	0.10	2.00	1.00;
2	0	0	3	0.10	2.00	1.00;
2	0	0	3	0.10	2.00	1.00;
2	0	0	3	0.10	2.00	1.00;
2	0	0	3	0.10	2.00	1.00;
2	0	0	3	0.10	2.00	1.00;
2	0	0	3	0.10	2.00	1.00;
2	0	0	3	0.10	2.00	1.00;
2	0	0	3	0.10	2.00	1.00;
2	0	0	3	0.10	2.00	1.00;
2	0	0	3	0.10	2.00	1.00;
2	0	0	3	0.10	2.00	1.00;
2	0	0	3	0.10	2.00	1.00;
2	0	0	3	0.10	2.00	1.00;
2	0	0	3	0.10	2.00	1.00;
2	0	0	3	0.10	2.00	1.00;
2	0	0	3	0.10	2.00	1.00;
2	0	0	3	0.10	2.00	1.00;
2	0	0	3	0.10	2.00	1.00;
2	0	0	3	0.10	2.00	1.00;
2	0	0	3	0.10	2.00	1.00;
2	0	0	3	0.10	2.00	1.00;
2	0	0	3	0.10	2.00	1.00;
2	0	0	3	0.10	2.00	1.00;
2	0	0	3	0.10	2.00	1.00;
2	0	0	3	0.10	2.00	1.00;
2	0	0	3	0.10	2.00	1.00;
2	0	0	3	0.10	2.00	1.00;
2	0	0	3	0.10	2.00	1.00;
2	0	0	3	0.10	2.00	1.00;
2	0	0	3	0.10	2.00	1.00;
2	0	0	3	0.10	2.00	1.00;
2	0	0	3	0.10	2.00	1.00;
2	0	0	3	0.10	2.00	1.00;
2	0	0	3	0.10	2.00	1.00;
2	0	0	3	0.10	2.00	1.00;
2	0	0	3	0.10	2.00	1.00;
2	0	0	3	0.10	2.00	1.00;
2	0	0	3	0.10	2.00	1.00;
2	0	0	3	0.10	2.00	1.00;
2	0	0	3	0.10	2.00	1.00;
2	0	0	3	0.10	2.00	1.00;
2	0	0	3	0.10	2.00	1.00;
2	0	0	3	0.10	0.50	0.10;
2	0	0	3	0.10	0.50	0.10;
2	0	0	3	0.10	2.00	1.00;
2	0	0	3	0.10	2.00	1.00;
2	0	0	3	0.10	2.00	1.00;
2	0	0	3	0.10	2.00	1.00;
2	0	0	3	0.10	2.00	1.00;
2	0	0	3	0.10	2.00	1.00;
2	0	0	3	0.10	2.00	1.00;
2	0	0	3	0.10	2.00	1.00;
2	0	0	3	0.10	2.00	1.00;
2	0	0	3	0.10	2.00	1.00;
2	0	0	3	0.10	2.00	1.00;
2	0	0	3	0.10	2.00	1.00;
2	0	0	3	0.10	2.00	1.00;
2	0	0	3	0.10	2.00	1.00;
2	0	0	3	0.10	2.00	1.00;
...
];
